Circuit: * C:\git\2022_ST2PTT\05_LTSpice\diviseurTension.asc

Direct Newton iteration for .op point succeeded.

Date: Wed Jan 26 15:10:13 2022
Total elapsed time: 0.056 seconds.

tnom = 27
temp = 27
method = modified trap
totiter = 2091
traniter = 2088
tranpoints = 1045
accept = 1045
rejected = 0
matrix size = 3
fillins = 0
solver = Normal
Matrix Compiler1: 86 bytes object code size  0.0/0.0/[0.0]
Matrix Compiler2: 163 bytes object code size  0.0/0.0/[0.0]

