Circuit: * C:\git\2022_ST2PTT\05_LTSpice\npn.asc

Limiting fall time of source v1 to 0.0499
Direct Newton iteration for .op point succeeded.

Date: Wed Jan 26 17:34:23 2022
Total elapsed time: 0.050 seconds.

tnom = 27
temp = 27
method = modified trap
totiter = 2115
traniter = 2110
tranpoints = 1052
accept = 1052
rejected = 0
matrix size = 6
fillins = 0
solver = Normal
Matrix Compiler1: 146 bytes object code size  0.1/0.0/[0.0]
Matrix Compiler2: off  [0.0]/0.0/0.0

