Circuit: * C:\git\2022_ST2PTT\2022_ST2PTT\05_sim\LT_Spice\divTension.asc


Date: Tue Jan 25 15:16:11 2022
Total elapsed time: 0.031 seconds.

tnom = 27
temp = 27
method = trap
totiter = 0
traniter = 0
tranpoints = 0
accept = 0
rejected = 0
matrix size = 3
fillins = 0
solver = Normal

