Circuit: * C:\git\2022_ST2PTT\2022_ST2PTT\05_sim\LT_Spice\npn.asc

Direct Newton iteration for .op point succeeded.

Date: Tue Jan 25 15:34:51 2022
Total elapsed time: 0.025 seconds.

tnom = 27
temp = 27
method = modified trap
totiter = 3167
traniter = 3162
tranpoints = 1431
accept = 1395
rejected = 36
matrix size = 6
fillins = 0
solver = Normal
Matrix Compiler1: 146 bytes object code size  0.0/0.0/[0.0]
Matrix Compiler2:      32 opcodes  0.0/[0.0]/0.0

